// Generated for: spectre
// Generated on: May  1 20:53:21 2026
// Design library name: ADI_Project
// Design cell name: Output_Load
// Design view name: schematic
simulator lang=spectre
global 0 vdd!

// Library name: ADI_Project
// Cell name: Output_Load
// View name: schematic
R1 (vdd! OUTn) resistor r=50
R0 (vdd! OUTp) resistor r=50
C1 (OUTn 0) capacitor c=550f
C0 (OUTp 0) capacitor c=550f
simulatorOptions options psfversion="1.4.0" reltol=1e-3 vabstol=1e-6 \
    iabstol=1e-12 temp=27 tnom=27 scalem=1.0 scale=1.0 gmin=1e-12 rforce=1 \
    maxnotes=5 maxwarns=5 digits=5 cols=80 pivrel=1e-3 \
    sensfile="../psf/sens.output" checklimitdest=psf 
modelParameter info what=models where=rawfile
element info what=inst where=rawfile
outputParameter info what=output where=rawfile
designParamVals info what=parameters where=rawfile
primitives info what=primitives where=rawfile
subckts info what=subckts where=rawfile
saveOptions options save=allpub
