// Generated for: spectre
// Generated on: May  1 21:03:24 2026
// Design library name: ADI_Project
// Design cell name: Current_Source
// Design view name: schematic
simulator lang=spectre
global 0
parameters weight

// Library name: ADI_Project
// Cell name: Current_Source
// View name: schematic
Mcs (D Vb 0 0) nch w=1.183u l=500.0n m=weight
simulatorOptions options psfversion="1.4.0" reltol=1e-3 vabstol=1e-6 \
    iabstol=1e-12 temp=27 tnom=27 scalem=1.0 scale=1.0 gmin=1e-12 rforce=1 \
    maxnotes=5 maxwarns=5 digits=5 cols=80 pivrel=1e-3 \
    sensfile="../psf/sens.output" checklimitdest=psf 
modelParameter info what=models where=rawfile
element info what=inst where=rawfile
outputParameter info what=output where=rawfile
designParamVals info what=parameters where=rawfile
primitives info what=primitives where=rawfile
subckts info what=subckts where=rawfile
saveOptions options save=allpub
